C4|C4|mol2|1|dock17
 OpenBabel03182414363D

 26 28  0  0  0  0  0  0  0  0999 V2000
   61.1342   39.3651   32.4995 C   0  0  0  0  0  0  0  0  0  0  0  0
   59.7298   39.0558   32.9074 C   0  0  0  0  0  0  0  0  0  0  0  0
   59.1322   37.8472   33.1160 C   0  0  0  0  0  0  0  0  0  0  0  0
   57.7767   38.0683   33.4918 C   0  0  0  0  0  0  0  0  0  0  0  0
   56.7288   37.0685   33.8382 C   0  0  0  0  0  0  0  0  0  0  0  0
   55.6142   37.3790   34.2644 O   0  0  0  0  0  0  0  0  0  0  0  0
   57.1094   35.5995   33.6240 C   0  0  0  0  0  0  0  0  0  0  0  0
   56.3646   35.0405   32.5470 O   0  0  0  0  0  0  0  0  0  0  0  0
   56.3653   33.6718   32.4079 C   0  0  0  0  0  0  0  0  0  0  0  0
   56.2315   33.1639   31.1023 C   0  0  0  0  0  0  0  0  0  0  0  0
   56.2357   31.7768   30.8635 C   0  0  0  0  0  0  0  0  0  0  0  0
   56.3736   30.8654   31.9308 C   0  0  0  0  0  0  0  0  0  0  0  0
   56.3859   29.4826   31.5993 N   0  0  0  0  0  0  0  0  0  0  0  0
   56.7322   28.4099   32.3291 C   0  0  0  0  0  0  0  0  0  0  0  0
   57.1025   28.4328   33.5016 O   0  0  0  0  0  0  0  0  0  0  0  0
   56.6333   27.1288   31.6016 C   0  0  0  0  0  0  0  0  0  0  0  0
   57.1133   26.7633   30.3736 C   0  0  0  0  0  0  0  0  0  0  0  0
   56.7234   25.4101   30.1676 C   0  0  0  0  0  0  0  0  0  0  0  0
   56.0318   25.0438   31.2872 C   0  0  0  0  0  0  0  0  0  0  0  0
   55.9672   26.0778   32.1714 O   0  0  0  0  0  0  0  0  0  0  0  0
   56.4988   31.3711   33.2469 C   0  0  0  0  0  0  0  0  0  0  0  0
   56.4937   32.7596   33.4834 C   0  0  0  0  0  0  0  0  0  0  0  0
   57.5747   39.4294   33.4952 C   0  0  0  0  0  0  0  0  0  0  0  0
   56.3419   40.2344   33.7995 C   0  0  0  0  0  0  0  0  0  0  0  0
   58.7790   40.0388   33.1485 N   0  0  0  0  0  0  0  0  0  0  0  0
   58.9972   41.4748   33.0519 C   0  0  0  0  0  0  0  0  0  0  0  0
  1  2  1  0  0  0  0
  2  3  2  0  0  0  0
  2 25  1  0  0  0  0
  3  4  1  0  0  0  0
  4  5  1  0  0  0  0
  4 23  2  0  0  0  0
  5  6  2  0  0  0  0
  5  7  1  0  0  0  0
  7  8  1  0  0  0  0
  8  9  1  0  0  0  0
  9 10  2  0  0  0  0
  9 22  1  0  0  0  0
 10 11  1  0  0  0  0
 11 12  2  0  0  0  0
 12 13  1  0  0  0  0
 12 21  1  0  0  0  0
 13 14  1  0  0  0  0
 14 15  2  0  0  0  0
 14 16  1  0  0  0  0
 16 17  2  0  0  0  0
 16 20  1  0  0  0  0
 17 18  1  0  0  0  0
 18 19  2  0  0  0  0
 19 20  1  0  0  0  0
 21 22  2  0  0  0  0
 23 24  1  0  0  0  0
 23 25  1  0  0  0  0
 25 26  1  0  0  0  0
M  END
$$$$
