example_2|example_2_prep|mol2|1|dock2
  PyMOL2.5          3D                             0

 10 11  0  0  0  0  0  0  0  0999 V2000
   20.7260  -29.8941   47.3902 C   0  0  0  0  0  0  0  0  0  0  0  0
   19.7888  -30.2538   46.4089 C   0  0  0  0  0  0  0  0  0  0  0  0
   22.0875  -30.1250   47.1593 C   0  0  0  0  0  0  0  0  0  0  0  0
   20.2415  -30.8232   45.2187 C   0  0  0  0  0  0  0  0  0  0  0  0
   22.5488  -30.6918   45.9778 C   0  0  0  0  0  0  0  0  0  0  0  0
   21.6231  -31.0222   44.9829 C   0  0  0  0  0  0  0  0  0  0  0  0
   23.8610  -30.9095   45.8414 N   0  0  0  0  0  0  0  0  0  0  0  0
   22.1681  -31.5759   43.8143 C   0  0  0  0  0  0  0  0  0  0  0  0
   24.2590  -31.4888   44.7029 C   0  0  0  0  0  0  0  0  0  0  0  0
   23.4764  -31.8398   43.6779 N   0  0  0  0  0  0  0  0  0  0  0  0
  1  2  4  0  0  0  0
  1  3  4  0  0  0  0
  2  4  4  0  0  0  0
  3  5  4  0  0  0  0
  4  6  4  0  0  0  0
  5  7  4  0  0  0  0
  6  8  4  0  0  0  0
  7  9  4  0  0  0  0
  8 10  4  0  0  0  0
  5  6  4  0  0  0  0
  9 10  4  0  0  0  0
M  END
$$$$
